99_atoms
  PyMOL2.3          3D                             0

 99 66  0  0  0  0  0  0  0  0999 V2000
    2.3000    6.2800    1.1300 O   0  0  0  0  0  0  0  0  0  0  0  0
    1.3700    6.2600    1.5000 H   0  0  0  0  0  0  0  0  0  0  0  0
    2.3100    5.8900    0.2100 H   0  0  0  0  0  0  0  0  0  0  0  0
    2.2500    2.7500    9.9600 O   0  0  0  0  0  0  0  0  0  0  0  0
    2.6000    2.5800   10.8800 H   0  0  0  0  0  0  0  0  0  0  0  0
    1.3700    2.3000    9.8400 H   0  0  0  0  0  0  0  0  0  0  0  0
    0.1900    3.6800    6.4700 O   0  0  0  0  0  0  0  0  0  0  0  0
   -0.6300    4.1100    6.8600 H   0  0  0  0  0  0  0  0  0  0  0  0
   -0.0900    2.9500    5.8400 H   0  0  0  0  0  0  0  0  0  0  0  0
    6.8500   10.1200    6.6500 O   0  0  0  0  0  0  0  0  0  0  0  0
    7.5400    9.9600    7.3500 H   0  0  0  0  0  0  0  0  0  0  0  0
    6.1200   10.6900    7.0300 H   0  0  0  0  0  0  0  0  0  0  0  0
    1.2200    6.4300    5.6300 O   0  0  0  0  0  0  0  0  0  0  0  0
    0.7700    5.5500    5.8000 H   0  0  0  0  0  0  0  0  0  0  0  0
    1.2100    6.9700    6.4700 H   0  0  0  0  0  0  0  0  0  0  0  0
    8.0900    0.0400    5.0200 O   0  0  0  0  0  0  0  0  0  0  0  0
    8.4900    0.9500    4.9300 H   0  0  0  0  0  0  0  0  0  0  0  0
    7.0900    0.1200    5.0800 H   0  0  0  0  0  0  0  0  0  0  0  0
    1.9700    9.7600   12.6400 O   0  0  0  0  0  0  0  0  0  0  0  0
    2.8600    9.3100   12.5000 H   0  0  0  0  0  0  0  0  0  0  0  0
    1.2400    9.1100   12.4500 H   0  0  0  0  0  0  0  0  0  0  0  0
    5.9800    7.2900    2.7000 O   0  0  0  0  0  0  0  0  0  0  0  0
    6.2200    7.9800    2.0200 H   0  0  0  0  0  0  0  0  0  0  0  0
    5.2000    7.6200    3.2400 H   0  0  0  0  0  0  0  0  0  0  0  0
    0.7600    8.1100    7.8900 O   0  0  0  0  0  0  0  0  0  0  0  0
    1.7500    7.9900    7.9800 H   0  0  0  0  0  0  0  0  0  0  0  0
    0.5200    9.0600    8.1000 H   0  0  0  0  0  0  0  0  0  0  0  0
    8.6500    3.4800    1.9500 O   0  0  0  0  0  0  0  0  0  0  0  0
    9.2400    4.1100    1.4600 H   0  0  0  0  0  0  0  0  0  0  0  0
    8.8400    2.5400    1.6600 H   0  0  0  0  0  0  0  0  0  0  0  0
    3.8200    7.0000    4.8000 O   0  0  0  0  0  0  0  0  0  0  0  0
    4.2700    6.1000    4.7700 H   0  0  0  0  0  0  0  0  0  0  0  0
    2.8800    6.8900    5.1300 H   0  0  0  0  0  0  0  0  0  0  0  0
    6.1400    1.2200    1.1700 O   0  0  0  0  0  0  0  0  0  0  0  0
    7.1200    1.0000    1.2400 H   0  0  0  0  0  0  0  0  0  0  0  0
    5.8300    1.0500    0.2400 H   0  0  0  0  0  0  0  0  0  0  0  0
    9.2200    5.0300    8.9900 O   0  0  0  0  0  0  0  0  0  0  0  0
    8.9700    4.9400    8.0300 H   0  0  0  0  0  0  0  0  0  0  0  0
    9.7000    4.2100    9.3000 H   0  0  0  0  0  0  0  0  0  0  0  0
    5.3900    0.6400    5.1200 O   0  0  0  0  0  0  0  0  0  0  0  0
    4.5800    0.6500    5.7000 H   0  0  0  0  0  0  0  0  0  0  0  0
    5.4200    1.4700    4.5700 H   0  0  0  0  0  0  0  0  0  0  0  0
    5.2700    2.5600    3.2800 O   0  0  0  0  0  0  0  0  0  0  0  0
    5.5400    1.9700    2.5300 H   0  0  0  0  0  0  0  0  0  0  0  0
    5.2700    3.5100    2.9700 H   0  0  0  0  0  0  0  0  0  0  0  0
    5.6600    5.3700    8.6500 O   0  0  0  0  0  0  0  0  0  0  0  0
    5.7800    6.0300    7.9100 H   0  0  0  0  0  0  0  0  0  0  0  0
    6.1200    5.7100    9.4800 H   0  0  0  0  0  0  0  0  0  0  0  0
    5.7300    8.7000   10.2900 O   0  0  0  0  0  0  0  0  0  0  0  0
    6.1700    9.5900   10.2000 H   0  0  0  0  0  0  0  0  0  0  0  0
    5.1000    8.7000   11.0600 H   0  0  0  0  0  0  0  0  0  0  0  0
    3.0700    2.1300   12.3100 O   0  0  0  0  0  0  0  0  0  0  0  0
    2.8400    2.5000   13.2100 H   0  0  0  0  0  0  0  0  0  0  0  0
    2.7700    1.1800   12.2500 H   0  0  0  0  0  0  0  0  0  0  0  0
    7.3200    6.3400   10.6400 O   0  0  0  0  0  0  0  0  0  0  0  0
    7.9100    6.0800    9.8800 H   0  0  0  0  0  0  0  0  0  0  0  0
    7.0400    7.3000   10.5300 H   0  0  0  0  0  0  0  0  0  0  0  0
    3.0700    0.6300    6.1800 O   0  0  0  0  0  0  0  0  0  0  0  0
    2.9600    1.5700    6.5100 H   0  0  0  0  0  0  0  0  0  0  0  0
    3.0200    0.0000    6.9500 H   0  0  0  0  0  0  0  0  0  0  0  0
   10.2300    7.6600    9.6600 O   0  0  0  0  0  0  0  0  0  0  0  0
   10.3800    7.8700   10.6200 H   0  0  0  0  0  0  0  0  0  0  0  0
    9.9300    6.7100    9.5700 H   0  0  0  0  0  0  0  0  0  0  0  0
   10.6800   13.3300    8.4900 O   0  0  0  0  0  0  0  0  0  0  0  0
   10.7500   12.4900    7.9400 H   0  0  0  0  0  0  0  0  0  0  0  0
   11.3000   14.0200    8.1300 H   0  0  0  0  0  0  0  0  0  0  0  0
    3.1900    8.1000    9.4900 O   0  0  0  0  0  0  0  0  0  0  0  0
    4.1200    8.4600    9.5400 H   0  0  0  0  0  0  0  0  0  0  0  0
    3.1300    7.2500   10.0100 H   0  0  0  0  0  0  0  0  0  0  0  0
   10.0200    7.9600   12.3800 O   0  0  0  0  0  0  0  0  0  0  0  0
   10.4300    7.6400   13.2400 H   0  0  0  0  0  0  0  0  0  0  0  0
    9.0600    7.6900   12.3500 H   0  0  0  0  0  0  0  0  0  0  0  0
    8.1500    5.7200    3.2500 O   0  0  0  0  0  0  0  0  0  0  0  0
    8.2200    4.8300    2.7900 H   0  0  0  0  0  0  0  0  0  0  0  0
    7.2100    6.0600    3.1700 H   0  0  0  0  0  0  0  0  0  0  0  0
    4.7300    5.0000    1.9100 O   0  0  0  0  0  0  0  0  0  0  0  0
    5.3400    5.8000    1.9500 H   0  0  0  0  0  0  0  0  0  0  0  0
    3.7800    5.3100    1.9800 H   0  0  0  0  0  0  0  0  0  0  0  0
    9.0300    0.8600    1.3300 O   0  0  0  0  0  0  0  0  0  0  0  0
    9.5400    0.8700    0.4700 H   0  0  0  0  0  0  0  0  0  0  0  0
    9.5900    0.4400    2.0400 H   0  0  0  0  0  0  0  0  0  0  0  0
    2.6300    3.2600    7.2000 O   0  0  0  0  0  0  0  0  0  0  0  0
    1.8400    3.7700    6.8600 H   0  0  0  0  0  0  0  0  0  0  0  0
    2.5400    3.1100    8.1800 H   0  0  0  0  0  0  0  0  0  0  0  0
   10.3900   10.9800    6.9600 O   0  0  0  0  0  0  0  0  0  0  0  0
    9.6900   10.5100    7.5000 H   0  0  0  0  0  0  0  0  0  0  0  0
   10.9800   10.3000    6.5300 H   0  0  0  0  0  0  0  0  0  0  0  0
    0.7200    1.6600    3.1800 O   0  0  0  0  0  0  0  0  0  0  0  0
    0.5500    2.4900    2.6400 H   0  0  0  0  0  0  0  0  0  0  0  0
    1.6200    1.2900    2.9600 H   0  0  0  0  0  0  0  0  0  0  0  0
    5.9400    7.4500    6.5200 O   0  0  0  0  0  0  0  0  0  0  0  0
    6.4400    8.3000    6.3300 H   0  0  0  0  0  0  0  0  0  0  0  0
    5.0600    7.4700    6.0400 H   0  0  0  0  0  0  0  0  0  0  0  0
    8.5900    9.5600    8.6100 O   0  0  0  0  0  0  0  0  0  0  0  0
    9.1300    8.8700    9.0900 H   0  0  0  0  0  0  0  0  0  0  0  0
    8.2700   10.2500    9.2700 H   0  0  0  0  0  0  0  0  0  0  0  0
    4.2800    4.2400    5.2000 O   0  0  0  0  0  0  0  0  0  0  0  0
    4.5800    3.5200    4.5800 H   0  0  0  0  0  0  0  0  0  0  0  0
    3.8900    3.8400    6.0300 H   0  0  0  0  0  0  0  0  0  0  0  0
  1  2  1  0  0  0  0
  1  3  1  0  0  0  0
  4  5  1  0  0  0  0
  4  6  1  0  0  0  0
  7  8  1  0  0  0  0
  7  9  1  0  0  0  0
 10 11  1  0  0  0  0
 10 12  1  0  0  0  0
 13 14  1  0  0  0  0
 13 15  1  0  0  0  0
 16 17  1  0  0  0  0
 16 18  1  0  0  0  0
 19 20  1  0  0  0  0
 19 21  1  0  0  0  0
 22 23  1  0  0  0  0
 22 24  1  0  0  0  0
 25 26  1  0  0  0  0
 25 27  1  0  0  0  0
 28 29  1  0  0  0  0
 28 30  1  0  0  0  0
 31 32  1  0  0  0  0
 31 33  1  0  0  0  0
 34 35  1  0  0  0  0
 34 36  1  0  0  0  0
 37 38  1  0  0  0  0
 37 39  1  0  0  0  0
 40 41  1  0  0  0  0
 40 42  1  0  0  0  0
 43 44  1  0  0  0  0
 43 45  1  0  0  0  0
 46 47  1  0  0  0  0
 46 48  1  0  0  0  0
 49 50  1  0  0  0  0
 49 51  1  0  0  0  0
 52 53  1  0  0  0  0
 52 54  1  0  0  0  0
 55 56  1  0  0  0  0
 55 57  1  0  0  0  0
 58 59  1  0  0  0  0
 58 60  1  0  0  0  0
 61 62  1  0  0  0  0
 61 63  1  0  0  0  0
 64 65  1  0  0  0  0
 64 66  1  0  0  0  0
 67 68  1  0  0  0  0
 67 69  1  0  0  0  0
 70 71  1  0  0  0  0
 70 72  1  0  0  0  0
 73 74  1  0  0  0  0
 73 75  1  0  0  0  0
 76 77  1  0  0  0  0
 76 78  1  0  0  0  0
 79 80  1  0  0  0  0
 79 81  1  0  0  0  0
 82 83  1  0  0  0  0
 82 84  1  0  0  0  0
 85 86  1  0  0  0  0
 85 87  1  0  0  0  0
 88 89  1  0  0  0  0
 88 90  1  0  0  0  0
 91 92  1  0  0  0  0
 91 93  1  0  0  0  0
 94 95  1  0  0  0  0
 94 96  1  0  0  0  0
 97 98  1  0  0  0  0
 97 99  1  0  0  0  0
M  END
$$$$
